# generated using pymatgen
data_FeCo
_symmetry_space_group_name_H-M   'P 1'
_cell_length_a   12.00000000
_cell_length_b   12.00000000
_cell_length_c   9.00000000
_cell_angle_alpha   90.00000000
_cell_angle_beta   90.00000000
_cell_angle_gamma   90.00000000
_symmetry_Int_Tables_number   1
_chemical_formula_structural   FeCo
_chemical_formula_sum   'Fe24 Co24'
_cell_volume   1296.00000000
_cell_formula_units_Z   24
loop_
 _symmetry_equiv_pos_site_id
 _symmetry_equiv_pos_as_xyz
  1  'x, y, z'
loop_
 _atom_site_type_symbol
 _atom_site_label
 _atom_site_symmetry_multiplicity
 _atom_site_fract_x
 _atom_site_fract_y
 _atom_site_fract_z
 _atom_site_occupancy
  Co  Co0  1  0.12500000  0.12500000  0.16666667  1
  Fe  Fe1  1  0.12500000  0.12500000  0.50000000  1
  Fe  Fe2  1  0.12500000  0.12500000  0.83333333  1
  Fe  Fe3  1  0.12500000  0.37500000  0.16666667  1
  Fe  Fe4  1  0.12500000  0.37500000  0.50000000  1
  Fe  Fe5  1  0.12500000  0.37500000  0.83333333  1
  Co  Co6  1  0.12500000  0.62500000  0.16666667  1
  Co  Co7  1  0.12500000  0.62500000  0.50000000  1
  Co  Co8  1  0.12500000  0.62500000  0.83333333  1
  Fe  Fe9  1  0.12500000  0.87500000  0.16666667  1
  Fe  Fe10  1  0.12500000  0.87500000  0.50000000  1
  Fe  Fe11  1  0.12500000  0.87500000  0.83333333  1
  Co  Co12  1  0.37500000  0.12500000  0.16666667  1
  Fe  Fe13  1  0.37500000  0.12500000  0.50000000  1
  Co  Co14  1  0.37500000  0.12500000  0.83333333  1
  Co  Co15  1  0.37500000  0.37500000  0.16666667  1
  Co  Co16  1  0.37500000  0.37500000  0.50000000  1
  Fe  Fe17  1  0.37500000  0.37500000  0.83333333  1
  Co  Co18  1  0.37500000  0.62500000  0.16666667  1
  Fe  Fe19  1  0.37500000  0.62500000  0.50000000  1
  Fe  Fe20  1  0.37500000  0.62500000  0.83333333  1
  Co  Co21  1  0.37500000  0.87500000  0.16666667  1
  Fe  Fe22  1  0.37500000  0.87500000  0.50000000  1
  Fe  Fe23  1  0.37500000  0.87500000  0.83333333  1
  Co  Co24  1  0.62500000  0.12500000  0.16666667  1
  Fe  Fe25  1  0.62500000  0.12500000  0.50000000  1
  Co  Co26  1  0.62500000  0.12500000  0.83333333  1
  Co  Co27  1  0.62500000  0.37500000  0.16666667  1
  Fe  Fe28  1  0.62500000  0.37500000  0.50000000  1
  Co  Co29  1  0.62500000  0.37500000  0.83333333  1
  Fe  Fe30  1  0.62500000  0.62500000  0.16666667  1
  Fe  Fe31  1  0.62500000  0.62500000  0.50000000  1
  Fe  Fe32  1  0.62500000  0.62500000  0.83333333  1
  Fe  Fe33  1  0.62500000  0.87500000  0.16666667  1
  Co  Co34  1  0.62500000  0.87500000  0.50000000  1
  Co  Co35  1  0.62500000  0.87500000  0.83333333  1
  Co  Co36  1  0.87500000  0.12500000  0.16666667  1
  Co  Co37  1  0.87500000  0.12500000  0.50000000  1
  Fe  Fe38  1  0.87500000  0.12500000  0.83333333  1
  Fe  Fe39  1  0.87500000  0.37500000  0.16666667  1
  Co  Co40  1  0.87500000  0.37500000  0.50000000  1
  Co  Co41  1  0.87500000  0.37500000  0.83333333  1
  Co  Co42  1  0.87500000  0.62500000  0.16666667  1
  Co  Co43  1  0.87500000  0.62500000  0.50000000  1
  Fe  Fe44  1  0.87500000  0.62500000  0.83333333  1
  Co  Co45  1  0.87500000  0.87500000  0.16666667  1
  Co  Co46  1  0.87500000  0.87500000  0.50000000  1
  Fe  Fe47  1  0.87500000  0.87500000  0.83333333  1
